Completed: ngspice -b -r /headless/.xschem/simulations/rlc.raw /headless/.xschem/simulations/rlc.spice
stderr:
Using SPARSE 1.3 as Direct Linear Solver
data:

Note: Compatibility modes selected: hs a


Circuit: ** sch_path: /foss/designs/x/rlc.sh

binary raw file "/headless/.xschem/simulations/rlc.raw"
Doing analysis at TEMP = 27.000000 and TNOM = 27.000000

No. of Data Columns : 8  
Using transient initial conditions
 Reference value :  7.40660e-04
 Reference value :  1.39169e-03
No. of Data Rows : 200011

Total analysis time (seconds) = 0.698

Total elapsed time (seconds) = 0.700 

Total DRAM available = 31928.352 MB.
DRAM currently available = 29745.383 MB.
Maximum ngspice program size =   23.934 MB.
Current ngspice program size =   12.777 MB.

Shared ngspice pages =   10.762 MB.
Text (code) pages =    5.887 MB.
Stack = 0 bytes.
Library pages =    2.125 MB.

